%nprocshared=32
%mem=40GB
%chk=PLATZHALTER.chk
# opt=(maxcycles=100,Modredundant,verytight) EmpiricalDispersion=GD3BJ Rb3lyp/6-311+g(d,p) int=ultrafine symmetry=none

Scan XXXX degrees

1 1
C  
P   1   1.809580     
C   2   1.817141      1   109.237847   
O   3   1.534444      2   113.701881    1   D1234       
C   4   1.525742      3   111.598579    2   D2345       
C   5   1.404151      4   106.847241    3   D3456       
C   6   1.423392      5   113.343477    4   D4567        
C   2   1.809041      1   109.165302    3   110.072810     -1
C   2   1.809042      1   109.168052    3   110.068220      1
H   1   1.091460      2   109.821424    8   60.424578    
H   1   1.091476      2   109.903450    8   -59.590955   
H   1   1.091455      2   109.821522    8   -179.603328  
H   9   1.091513      2   109.814574    8   -178.473164  
H   9   1.091511      2   109.673200    8   61.621749    
H   9   1.090684      2   110.009254    8   -58.298395   
H   8   1.091505      2   109.672360    9   -61.664189   
H   8   1.091509      2   109.814387    9   178.431329   
H   8   1.090678      2   110.012649    9   58.253091    
H   3   1.095232      2   106.673331    4   111.231062      1
H   3   1.095212      2   106.675887    4   111.237319     -1
H   5   1.101698      4   110.324010    6   110.950777     -1
H   5   1.101700      6   110.951390    4   110.323031     -1
H   6   1.069994      5   108.495112    7   108.494679      1
H   6   1.070004      5   107.203106    7   107.202404     -1
H   7   1.096845      6   111.053434    5   60.854592    
H   7   1.096845      6   111.051833    5   -60.859665   
H   7   1.088337      6   106.842465    5   179.998096   
Variables:
D1234         =        179.0
D2345         =        179.0
D3456         =        179.0
D4567         =        179.0
 
D 1 2 3 4 F



