%nprocshared=32
%mem=40GB
%chk=PLATZHALTER.chk
# opt=(maxcycles=100,Modredundant,verytight) EmpiricalDispersion=GD3BJ Rb3lyp/6-311+g(d,p) int=ultrafine symmetry=none

Scan XXXX degrees

1 1
C  
P   1   1.810040     
C   2   1.816787      1   109.425290   
C   3   1.537047      2   114.531224    1   D1234        
C   4   1.532665      3   111.545730    2   D2345        
C   5   1.531109      4   112.683806    3   D3456       
C   6   1.529367      5   112.601594    4   D4567       
C   2   1.809512      1   109.029511    3   110.153907      1
C   2   1.809516      1   109.032036    3   110.148027     -1
H   9   1.091465      2   109.754343    1   57.506095    
H   9   1.091504      2   109.767036    1   -62.415718   
H   9   1.090633      2   109.994785    1   177.483355   
H   1   1.091476      2   109.972656    3   179.952337   
H   1   1.091448      2   109.784792    3   -59.989169   
H   1   1.091447      2   109.788527    3   59.891343    
H   8   1.091464      2   109.751025    3   -177.687572  
H   8   1.091504      2   109.764608    3   -57.769455   
H   8   1.090634      2   110.001882    3   62.335185    
H   3   1.095159      2   106.688933    4   110.849145     -1
H   3   1.095165      2   106.686244    4   110.846240      1
H   4   1.094757      3   109.991469    5   109.127661      1
H   4   1.094756      3   109.986415    5   109.129982     -1
H   6   1.096101      7   109.620613    5   109.216576     -1
H   6   1.096096      7   109.621580    5   109.218260      1
H   7   1.093636      6   111.192864    5   -60.049928   
H   7   1.093633      6   111.193204    5   60.082184    
H   7   1.091753      6   111.073098    5   -179.983977  
H   5   1.096327      6   109.486180    4   109.277810     -1
H   5   1.096327      4   109.279542    6   109.483025     -1
Variables:
D1234         =        180.0
D2345         =        XXXX.0
D3456         =        180.0
D4567         =        180.0
 
D 2 3 4 5 F
 

