%nprocshared=32
%mem=40GB
%chk=PLATZHALTER.chk
# opt=(maxcycles=100,Modredundant,verytight) EmpiricalDispersion=GD3BJ Rb3lyp/6-311+g(d,p) int=ultrafine symmetry=none

Scan XXXX degrees

1 1
C  
P   1   1.809579     
C   2   1.817145      1   109.237703   
C   3   1.534445      2   113.702091    1   D1234       
C   4   1.525734      3   111.598675    2   D2345       
O   5   1.404157      4   106.847499    3   D3456       
C   6   1.423386      5   113.343635    4   D4567        
C   2   1.809043      3   110.072609    1   109.165664      1
C   2   1.809043      3   110.068050    1   109.168068     -1
H   9   1.091507      2   109.814459    8   -178.472971  
H   9   1.091510      2   109.672952    8   61.621499    
H   9   1.090684      2   110.009250    8   -58.298046   
H   8   1.091507      2   109.671889    9   -61.664811   
H   8   1.091507      2   109.814195    9   178.431353   
H   8   1.090677      2   110.012667    9   58.252922    
H   1   1.091457      2   109.821643    9   179.615296   
H   1   1.091455      2   109.821829    9   -60.412479   
H   1   1.091475      2   109.903044    9   59.600102    
H   3   1.095219      2   106.675947    4   111.237116     -1
H   3   1.095227      2   106.673466    4   111.230769      1
H   4   1.093026      3   110.836652    5   107.997007      1
H   4   1.093025      3   110.829671    5   107.999733     -1
H   5   1.101695      6   110.950512    4   110.324073      1
H   5   1.101696      4   110.323060    6   110.950813      1
H   7   1.096845      6   111.052351    5   -60.859293   
H   7   1.096844      6   111.053132    5   60.855007    
H   7   1.088339      6   106.842405    5   179.998251   
Variables:
D1234         =        XXXX.0
D2345         =        179.0
D3456         =        179.0
D4567         =        179.0
 
D 1 2 3 4 F



